-;
-;
-;  Sample command file for NETVAL Disk Maintenance Version 1.02
-;
-copy (source)nval02.i05+(trwnet)trw02.a01+(source)nvdm01.r02
TO: nd9999.zi9

-run (source)cppro

Concurrent Pascal Preprocessor. Version 1.0

Input file: nd9999.zi9
Output file: nd9999.zi9

Preprocessing complete. 25870 lines read, 21029 lines written

End of SAIL execution
-run (source)cpas1
OBJECT    = nd9999.xi9
LIST      = nd9999.yi9
SOURCE    = nd9999.zi9

CPASCAL/ENGINE-1 OF 11 JUNE MCMLXXXVI
 1 2 3 4 5 6 7
EXIT

-run (source)objnib
PASCAL E-code to NAD image binary converter - Version 1.5
                Product ID is 006F
Concurrent PASCAL OBJECT <input> file : nd9999.xi9
NAD <output> file name : nd9999.xi9
Hex value of E-code load address (Default 20000) : 


Total bytes input: 123916
Total records output: 5
End of SAIL execution
-run (source)staddr

STADDR - version 1.1

input file: nd9999.yi9
output file: nd9999.yi9

EXIT

-run (source)nad
1.5
;a   (source)pnuc10.i07

End of assembly
;a   (trwnet)trw02.t01

End of assembly
;a   (source)pnuc10.r07
 
Concurrent PASCAL Nucleus 07/10/84

HOST NUMBER -731

Port configuration - 10 terminal devices, 5 circuit devices.

This is version 10.7

COMFIL 0 0
Start.Lib Version 0.05
TRACE 1028A 1032C 
CRASH.LIB    05-21-84 AWT 
THIS VERSION HAS NEW CRASH CODE 16!
CRASH 1032C 10546
BID 10546 10556
TIMOUT 10556 1062A
RING 1062A 107E4
OUTNUM 107E4 57C
BUFFER 57C 0F92
FrontLib V0.15 04-05-82 SCY
FRONT 0F92 11612
COMMON  V 1.9, 10-06-72, RNP
COMMON 11612 11612
STATUS 11612 1180C
NUCDB  V 0.3, 04-22-83, RNP
NUCDB 1180C 11F30
FORGND  V 1.0, 04-22-83, RNP 
DSKDRV  V 1.9 03-22-84, AWT
DSKDRV 12016 127E0 
LPRDRV  V 1.5 05-11-83, RNP 
PSEUDO  V 1.22 07-10-84, AWT
PSEUDO 127E0 12A8E 
TTYDRV  V 1.17 07-10-84 AWT
TTYDRV 12A8E 1433C
NUCIO	V 1.4 05-05-82, SCY
NUCIO 1433C 1455E
NUCLUS  V 0.112  03-22-84, AWT
NUCLUS 1455E 15020
TTYDRV 15020 3BE4
PSEUDO 3BE4 3BE4

386K-bytes left for Pascal Code Area
SEGMENT 0-length 15462d, requires 3D00x bytes of core.
SEGMENT 1-length 20648d, requires 5100x bytes of core.
SEGMENT 2-length 65536d, requires 10000x bytes of core.
SEGMENT 3-length 65536d, requires 10000x bytes of core.
SEGMENT 4-length 65536d, requires 10000x bytes of core.
SEGMENT 5-length 65536d, requires 10000x bytes of core.
SEGMENT 6-length 65536d, requires 10000x bytes of core.
SEGMENT 7-length 65536d, requires 10000x bytes of core.
SEGMENT 8-length 2304d, requires 900x bytes of core.
SEGMENT 0E-length 252d, requires 100x bytes of core.
       422d K-bytes of core
End of assembly
;x   (source)nvdm01.p02

;; Patch to correct bug in checksum computaion - Nucleus version 10.07

lo pseudo
syout1]   STH 4,0A,0B   st 4,8,0b
1291A\   STH 5,0E,0B   st 5,0c,0b
%f   nd9999.xi9

;g
Data ranges read:
20000-27FF7 27FF8-2FFEF 2FFF0-37FE7 37FE8-3E40B 


;a   nd9999.yi9

End of assembly
;4   seg2[   1E40A   ;\   0   
.[   0   s2size:   
1;f   trw02.ni1

sege,sesize;p
seg0,s0size;p
seg1,s1size;p
seg2,s2size;p
%p
%q
EXIT

-
-delete nd9999.xi9,nd9999.yi9,nd9999.zi9


-SEND TRWNET
TYPE LETTER:
; PCOM v1.63 - processed: (TRWNET)OUT.A = (TRWNET)TRW02.CI1
; Options: DETACH  LOG NOAPPEND SUPERSEDE LICENSE 
; Limits: TIME:60 TRULIMIT:0 
; Status: completed.
; Output recorded in file (TRWNET)OUT.A.

mail waiting
-LOGOUT
10209.22 tru
terminal time: 0:25:37
